/*--------------------------------*- C++ -*----------------------------------*\
  =========                 |
  \\      /  F ield         | OpenFOAM: The Open Source CFD Toolbox
   \\    /   O peration     | Website:  https://openfoam.org
    \\  /    A nd           | Version:  7
     \\/     M anipulation  |
\*---------------------------------------------------------------------------*/
FoamFile
{
    version     2.0;
    format      ascii;
    class       volVectorField;
    location    "0";
    object      U;
}
// * * * * * * * * * * * * * * * * * * * * * * * * * * * * * * * * * * * * * //

dimensions      [0 1 -1 0 0 0 0];

internalField   uniform (0 0 0);

boundaryField
{
    inlet
    {
        type            fixedValue;
        value           #codeStream
        {
            codeInclude
            #{
                #include "fvCFD.H"
            #};

            codeOptions
            #{
                -I$(LIB_SRC)/finiteVolume/lnInclude \
                -I$(LIB_SRC)/meshTools/lnInclude
            #};

    	    //libs needed to visualize BC in paraview
    	    codeLibs
    	    #{
                -lmeshTools \
                -lfiniteVolume
    	    #};

            code
            #{
                const IOdictionary& d = static_cast<const IOdictionary&>
		        (
                    dict.parent().parent()
                );

                const fvMesh& mesh = refCast<const fvMesh>(d.db());
                const label id = mesh.boundary().findPatchID("inlet");
                const fvPatch& patch = mesh.boundary()[id];
                
                //vectorField U(mesh.boundary()[id].size(), vector(0, 0, 0));
                vectorField U(patch.size(), vector(0, 0, 0));
                const scalar Re = 5; //Re number
                const scalar nu = 8.1469e-6; //kinetimatic viscosity
                const scalar w = 100e-6; // characteristic length
                const scalar U_0   = Re*nu/w;	//Average vel 
                const scalar H = 100e-6; //inlet width

                forAll(U, i)
                {
                    const scalar y = patch.Cf()[i][1];
                    const scalar yr = y/H;
                    U[i] = vector(4*U_0*yr*(1-yr), 0., 0.);
                }

                writeEntry(os, "", U);
            #};
        };
    }

    outlet
    {
        type            zeroGradient;
    }
    "(top|bottom)"
    {
        type            noSlip;
    }
    frontAndBack
    {
        type            empty;
    }
}


// ************************************************************************* //
