/*--------------------------------*- C++ -*----------------------------------*\
  =========                 |
  \\      /  F ield         | OpenFOAM: The Open Source CFD Toolbox
   \\    /   O peration     | Website:  https://openfoam.org
    \\  /    A nd           | Version:  7
     \\/     M anipulation  |
\*---------------------------------------------------------------------------*/
FoamFile
{
    version     2.0;
    format      ascii;
    class       dictionary;
    location    "system";
    object      controlDict;
}
// * * * * * * * * * * * * * * * * * * * * * * * * * * * * * * * * * * * * * //

application     pimpleFoam;

// startFrom       startTime;
startFrom       latestTime;
startTime       0;

stopAt          endTime;

// endTime         5;

endTime         0.0001;
// endTime         20;

deltaT          1e-5;

//writeControl    adjustableRunTime;
writeControl    runTime;

// writeInterval   1;
writeInterval   0.0001;

purgeWrite      0;

writeFormat     ascii;

writePrecision  6;

writeCompression off;

timeFormat      general;

timePrecision   7;

runTimeModifiable yes;

// adjustTimeStep  yes;
adjustTimeStep  no;

maxCo           0.99;

maxDeltaT       0.0012;

// functions
// {
//     #includeFunc  residuals
//     #includeFunc  minMaxComponents
// }

// ************************************************************************* //
