/*--------------------------------*- C++ -*----------------------------------*\
  =========                 |
  \\      /  F ield         | OpenFOAM: The Open Source CFD Toolbox
   \\    /   O peration     | Website:  https://openfoam.org
    \\  /    A nd           | Version:  7
     \\/     M anipulation  |
\*---------------------------------------------------------------------------*/
FoamFile
{
    version     2.0;
    format      ascii;
    class       dictionary;
    location    "system";
    object      controlDict;
}
// * * * * * * * * * * * * * * * * * * * * * * * * * * * * * * * * * * * * * //

application     dbsConjugateHeatTransfer;

 //startFrom       startTime;
startFrom       latestTime;
startTime       0;

stopAt          endTime;

// endTime         5;

// endTime         0.1;
// // endTime         20;

// deltaT          1e-5;

// //writeControl    adjustableRunTime;
// writeControl    adjustableRunTime;

// // writeInterval   1;
// writeInterval   0.01;

endTime        0.15;

deltaT          1e-4;

writeControl    adjustableRunTime;

writeInterval   0.05;


purgeWrite      0;

writeFormat     ascii;

writePrecision  6;

writeCompression off;

timeFormat      general;

timePrecision   7;

runTimeModifiable yes;

adjustTimeStep  yes;
// adjustTimeStep  off;

maxCo           0.90;

maxDeltaT       0.1;

// functions
// {
//     #includeFunc  residuals
//     #includeFunc  minMaxComponents
// }

// ************************************************************************* //
