/*--------------------------------*- C++ -*----------------------------------*\
  =========                 |
  \\      /  F ield         | OpenFOAM: The Open Source CFD Toolbox
   \\    /   O peration     | Website:  https://openfoam.org
    \\  /    A nd           | Version:  7
     \\/     M anipulation  |
\*---------------------------------------------------------------------------*/
FoamFile
{
    version     2.0;
    format      ascii;
    class       dictionary;
    location    "system";
    object      fvSolution;
}
// * * * * * * * * * * * * * * * * * * * * * * * * * * * * * * * * * * * * * //

solvers
{
    "rho.*"
    {
        solver          diagonal;
    }

    // p_rgh
    // {
    //     solver          PCG;
    //     preconditioner  DIC;
    //     tolerance       1e-6;
    //     relTol          0.01;
    // }

    p_rgh
    {
        solver          GAMG;
        smoother        GaussSeidel;
        tolerance       1e-6;
        relTol          0.01;
    }

    p_rghFinal
    {
        $p_rgh;
        tolerance       1e-8;
        relTol          0;
    }


    "(h|e)"
    {
        solver          PBiCGStab;
        preconditioner  DILU;
        tolerance       1e-6;
        relTol          0.01;
    }

    "(h|e)Final"
    {
        $h;
        tolerance       1e-8;
        relTol          0;
    }

    "U"
    {
        solver          PBiCGStab;
        preconditioner  DILU;
        tolerance       1e-6;
        relTol          0.01;
        relTol          0;
    }

    "UFinal"
    {
        $U;
        tolerance       1e-8;
        relTol          0;
    }

}


PIMPLE
{
    momentumPredictor no;
    nNonOrthogonalCorrectors 0;
    nCorrectors       2;
    nOuterCorrectors  1;

    outerCorrectorResidualControl
    {
        "(h|e)"    
        {
            tolerance  1e-6;
            relTol     0;
        }

        p_rgh      
        {
            tolerance  1e-5;
            relTol     0;
        }
        
    }

}

relaxationFactors
{
    // fields
    // {
    //     p_rgh           0.7;
    // }
    equations
    {
        U               0.7;
        // ".*"            0.7;
    }
    
}

// relaxationFactors
// {
//     equations
//     {
//         ".*" 1;
//     }
// }


// relaxationFactors
// {
//     equations
//     {
//         "Y.*"            0.7;
//         "(h|e)"            0.7;
//     }
//     equations
//     {
//         "Y.*Final"            1.0;
//         "(h|e)Final"            1.0;
//     }
// }

// ************************************************************************* //
